%nprocshared=4
%mem=16GB
%chk=cis-2-butene_JETWEI.chk
# opt freq b3lyp 6-31g(d)

cis-2-butene_JETWEI

0 1
 C                  2.40586614   -0.90991497    1.36684480
 H                  2.76253898   -0.40551678    2.24049630
 H                  2.76253898   -0.40551678    0.49319329
 H                  1.33586614   -0.90990179    1.36684480
 C                 -2.99084443   -2.32345238    1.60873942
 H                 -2.63419001   -3.33226238    1.60873942
 H                 -2.63417159   -1.81905419    0.73508791
 H                 -4.06084443   -2.32343919    1.60873942
 C                 -1.25686029   -2.78953965    1.52927875
 C                  0.62252852   -2.07576948    1.71854390
 H                 -1.36817581   -3.93838045    1.68209357
 H                  1.76361330   -2.79444901    2.02511188


