%nprocshared=4
%mem=16GB
%chk=trans-2-butene_JETWEI.chk
# opt freq b3lyp 6-31g(d)

trans-2-butene_JETWEI

0 1
 C                 -2.56028358    0.12250242    0.37132717
 C                 -0.80131393    0.18255810    0.04672508
 H                 -0.32692858    0.86259999   -0.48662057
 H                 -3.11411980   -0.44663497    0.87133085
 C                 -4.14862702    1.33536232    1.18592757
 H                 -3.79195417    1.83976051    2.05957907
 H                 -3.79195417    1.83976051    0.31227607
 H                 -5.21862702    1.33537550    1.18592757
 C                  0.68750797   -1.54744856    0.76555710
 H                  1.04416239   -2.55625856    0.76555710
 H                  1.04418081   -1.04305037    1.63920861
 H                  1.04418081   -1.04305037   -0.10809440



